
#======================================================================
# CRYSTAL DATA
#----------------------------------------------------------------------
data_VESTA_phase_1

_chemical_name_common                  'Li3 B3 F12                            '
_cell_length_a                         10.148584
_cell_length_b                         15.006737
_cell_length_c                         11.134627
_cell_angle_alpha                      88.070923
_cell_angle_beta                       89.065971
_cell_angle_gamma                      118.234009
_cell_volume                           1492.166592
_space_group_name_H-M_alt              'P 1'
_space_group_IT_number                 1

loop_
_space_group_symop_operation_xyz
   'x, y, z'

loop_
   _atom_site_label
   _atom_site_occupancy
   _atom_site_fract_x
   _atom_site_fract_y
   _atom_site_fract_z
   _atom_site_adp_type
   _atom_site_U_iso_or_equiv
   _atom_site_type_symbol
   Li1        1.0     0.984286     0.159299     0.659224    Uiso  ? Li
   Li2        1.0     0.017252     0.500233     0.678962    Uiso  ? Li
   Li3        1.0     0.122072     0.867599     0.681311    Uiso  ? Li
   Li4        1.0     0.425160     0.073741     0.660151    Uiso  ? Li
   Li5        1.0     0.450133     0.459904     0.687847    Uiso  ? Li
   Li6        1.0     0.423146     0.861184     0.663798    Uiso  ? Li
   Li7        1.0     0.189795     0.995360     0.309469    Uiso  ? Li
   Li8        1.0     0.226245     0.338767     0.333192    Uiso  ? Li
   Li9        1.0     0.248531     0.668753     0.312032    Uiso  ? Li
   Li10       1.0     0.733132     0.025736     0.306807    Uiso  ? Li
   Li11       1.0     0.758285     0.345149     0.349164    Uiso  ? Li
   Li12       1.0     0.831388     0.747130     0.352450    Uiso  ? Li
   Li13       1.0     0.327860     0.157264     0.093851    Uiso  ? Li
   Li14       1.0     0.250895     0.496116     0.989505    Uiso  ? Li
   Li15       1.0     0.277517     0.853886     0.995019    Uiso  ? Li
   Li16       1.0     0.786495     0.144482     0.010344    Uiso  ? Li
   Li17       1.0     0.767587     0.501515     0.992758    Uiso  ? Li
   Li18       1.0     0.909417     0.871848     0.847876    Uiso  ? Li
   Li19       1.0     0.536378     0.124981     0.258285    Uiso  ? Li
   Li20       1.0     0.802798     0.543835     0.482459    Uiso  ? Li
   Li21       1.0     0.795528     0.728394     0.613784    Uiso  ? Li
   Li22       1.0     0.666516     0.716647     0.084864    Uiso  ? Li
   Li23       1.0     0.645368     0.250889     0.093749    Uiso  ? Li
   Li24       1.0     0.674897     0.376797     0.606436    Uiso  ? Li
   Li25       1.0     0.468189     0.282408     0.843837    Uiso  ? Li
   Li26       1.0     0.511542     0.335576     0.340942    Uiso  ? Li
   B1         1.0     0.250162     0.163405     0.493327    Uiso  ? B
   B2         1.0     0.277689     0.517158     0.487512    Uiso  ? B
   B3         1.0     0.231137     0.823420     0.457493    Uiso  ? B
   B4         1.0     0.728831     0.166485     0.507869    Uiso  ? B
   B5         1.0     0.754081     0.859880     0.459107    Uiso  ? B
   B6         1.0     0.035117     0.178497     0.182838    Uiso  ? B
   B7         1.0     0.002442     0.503447     0.172928    Uiso  ? B
   B8         1.0     0.987533     0.823749     0.126617    Uiso  ? B
   B9         1.0     0.491154     0.486725     0.160075    Uiso  ? B
   B10        1.0     0.513919     0.844116     0.149470    Uiso  ? B
   B11        1.0     0.240433     0.038583     0.878549    Uiso  ? B
   B12        1.0     0.179775     0.319690     0.835825    Uiso  ? B
   B13        1.0     0.244354     0.671302     0.836782    Uiso  ? B
   B14        1.0     0.732674     0.983101     0.808958    Uiso  ? B
   B15        1.0     0.793464     0.330284     0.842864    Uiso  ? B
   B16        1.0     0.638431     0.609563     0.849465    Uiso  ? B
   F1         1.0     0.281669     0.288910     0.879939    Uiso  ? F
   F2         1.0     0.312910     0.627562     0.912038    Uiso  ? F
   F3         1.0     0.295924     0.975733     0.929954    Uiso  ? F
   F4         1.0     0.798826     0.271736     0.944378    Uiso  ? F
   F5         1.0     0.501911     0.521204     0.875366    Uiso  ? F
   F6         1.0     0.778970     0.924089     0.880591    Uiso  ? F
   F7         1.0     0.050543     0.261508     0.252136    Uiso  ? F
   F8         1.0     0.050386     0.568177     0.270794    Uiso  ? F
   F9         1.0     0.029058     0.897916     0.213004    Uiso  ? F
   F10        1.0     0.592784     0.266323     0.260782    Uiso  ? F
   F11        1.0     0.550336     0.591412     0.178388    Uiso  ? F
   F12        1.0     0.567126     0.917742     0.237168    Uiso  ? F
   F13        1.0     0.162814     0.169918     0.588392    Uiso  ? F
   F14        1.0     0.182604     0.526985     0.573248    Uiso  ? F
   F15        1.0     0.123204     0.784781     0.553329    Uiso  ? F
   F16        1.0     0.624552     0.110519     0.601173    Uiso  ? F
   F17        1.0     0.520449     0.370241     0.697730    Uiso  ? F
   F18        1.0     0.681372     0.807739     0.567375    Uiso  ? F
   F19        1.0     0.355117     0.116061     0.802215    Uiso  ? F
   F20        1.0     0.245212     0.389508     0.735581    Uiso  ? F
   F21        1.0     0.338311     0.722973     0.735755    Uiso  ? F
   F22        1.0     0.840660     0.031523     0.713167    Uiso  ? F
   F23        1.0     0.928018     0.371872     0.774195    Uiso  ? F
   F24        1.0     0.761169     0.594810     0.883611    Uiso  ? F
   F25        1.0     0.162838     0.082820     0.422096    Uiso  ? F
   F26        1.0     0.193693     0.424539     0.427938    Uiso  ? F
   F27        1.0     0.176725     0.755739     0.362444    Uiso  ? F
   F28        1.0     0.677017     0.116134     0.396958    Uiso  ? F
   F29        1.0     0.672673     0.414500     0.427777    Uiso  ? F
   F30        1.0     0.688425     0.797270     0.359825    Uiso  ? F
   F31        1.0     0.496120     0.248496     0.005396    Uiso  ? F
   F32        1.0     0.364253     0.453184     0.090760    Uiso  ? F
   F33        1.0     0.462419     0.880339     0.051962    Uiso  ? F
   F34        1.0     0.981414     0.182963     0.068917    Uiso  ? F
   F35        1.0     0.933549     0.539397     0.088501    Uiso  ? F
   F36        1.0     0.943116     0.853348     0.020153    Uiso  ? F
   F37        1.0     0.178741     0.185352     0.173551    Uiso  ? F
   F38        1.0     0.126818     0.500934     0.118551    Uiso  ? F
   F39        1.0     0.102847     0.799805     0.103044    Uiso  ? F
   F40        1.0     0.674492     0.139862     0.140847    Uiso  ? F
   F41        1.0     0.603980     0.468946     0.108269    Uiso  ? F
   F42        1.0     0.629982     0.824272     0.108943    Uiso  ? F
   F43        1.0     0.309394     0.257643     0.419500    Uiso  ? F
   F44        1.0     0.327978     0.598522     0.400357    Uiso  ? F
   F45        1.0     0.251830     0.919713     0.415918    Uiso  ? F
   F46        1.0     0.739979     0.264516     0.493635    Uiso  ? F
   F47        1.0     0.801001     0.661881     0.474949    Uiso  ? F
   F48        1.0     0.748249     0.951483     0.443799    Uiso  ? F
   F49        1.0     0.049405     0.234632     0.797630    Uiso  ? F
   F50        1.0     0.105415     0.593228     0.801667    Uiso  ? F
   F51        1.0     0.116070     0.980170     0.806829    Uiso  ? F
   F52        1.0     0.672945     0.270458     0.770926    Uiso  ? F
   F53        1.0     0.644453     0.629270     0.724016    Uiso  ? F
   F54        1.0     0.592321     0.921303     0.761321    Uiso  ? F
   F55        1.0     0.372919     0.153748     0.537081    Uiso  ? F
   F56        1.0     0.401148     0.515386     0.541227    Uiso  ? F
   F57        1.0     0.368722     0.830914     0.494086    Uiso  ? F
   F58        1.0     0.871225     0.176915     0.530769    Uiso  ? F
   F59        1.0     0.859003     0.490446     0.604268    Uiso  ? F
   F60        1.0     0.905715     0.877306     0.458386    Uiso  ? F
   F61        1.0     0.345827     0.074876     0.212823    Uiso  ? F
   F62        1.0     0.442367     0.428646     0.273535    Uiso  ? F
   F63        1.0     0.393788     0.752072     0.197184    Uiso  ? F
   F64        1.0     0.932404     0.086497     0.244694    Uiso  ? F
   F65        1.0     0.896135     0.404641     0.216339    Uiso  ? F
   F66        1.0     0.855431     0.735106     0.177207    Uiso  ? F
   F67        1.0     0.195432     0.081165     0.969465    Uiso  ? F
   F68        1.0     0.141544     0.368358     0.926492    Uiso  ? F
   F69        1.0     0.217053     0.741390     0.901515    Uiso  ? F
   F70        1.0     0.725173     0.057169     0.880208    Uiso  ? F
   F71        1.0     0.769811     0.409568     0.888251    Uiso  ? F
   F72        1.0     0.645712     0.691266     0.916112    Uiso  ? F
   F73        1.0     0.926071     0.804569     0.724721    Uiso  ? F
   F74        1.0     0.326815     0.938480     0.680185    Uiso  ? F
